* температурный режим
.options TEMP=27

* время моделирования - 30 мс
.tran 1us 30ms

