* SPICE модель германиевого диода 1N34 (аналог Д2Д, Д9Ж)
* найдено где-то в сети Интернет
.model 1N34 D(Is=200p Rs=84m N=2.19 Tt=144n Cjo=4.82p M=.333
+             Vj=0.75 Eg=0.67 Bv=60 Ibv=15u)

