* SPICE модель диода с барьером Шотки средней мощности (Imax=1A, Umax=40В)
* позаимствовано из "LTSpice IV"
.model 1N5819 D(Is=31.7u Rs=.051 N=1.373 Cjo=110p M=.35 Eg=.69 Xti=2)
*               Iave=1 Vpk=40 mfg=OnSemi type=Schottky

