* SPICE модель мощного и надежного советского диода КД213А
* Imax=10A, Umax=200В, Fmax=100кГц, Iобр.max=200мкА
.Model KD213A D(Is=57.90p N=1.12 Rs=17m Cjo=275.1p Tt=224n 
+		  M=0.321 Vj=0.72 Fc=0.5 Bv=200 IBv=1e-10 Eg=1.11 Xti=3)

