* SPICE модель мощного импортного транзистора 2N3055
* позаимствовано из "LTSpice IV"
.model 2N3055 NPN(Bf=73 Br=2.66 Rb=.81 Rc=.0856 Re=.000856
+  CJC=1000P PC=.75 MC=.33  Tr=.5703U Is=2.37E-8
+  CJE=415P PE=.75 ME=.5 TF=99.52N NE=1.26 IK=1)
*  Vceo=60 Icrating=10 mfg=STMicro


