* SPICE модель импортного PNP транзистора 2SCR542P
* позаимствовано из "LTSpice IV"
.model 2SCR542P NPN(Is=700.00E-15 Bf=336.60 Vaf=111 Ikf=14.480
+  Ise=700.00E-15 Ne=1.7454 Br=111.04 Var=19 Ikr=.98304
+  Isc=2.0888E-12 Nc=1.3942 Nk=.62374 Re=20.000E-3 Rb=.89756
+  Rc=51.259E-3 Cje=491.67E-12 Vje=.73414 Mje=.35298 Cjc=85.063E-12
+  Vjc=.65513 Mjc=.43196 Tf=412.36E-12 Xtf=29.416 Vtf=2.1315
+  Itf=2.2660 Tr=3.6000E-9 Xtb=1.5000)
*  Vceo=30 Icrating=5 mfg=Rohm

