* SPICE модель советского "военного" транзистора 2T325В (h21э=321.5) 
.model 2T325V NPN(Is=9.164f Xti=3 Eg=1.11 Vaf=87 Bf=321.5 Ise=87.74f 
+  Ne=1.473 Ikf=87.77m Xtb=1.5 Br=1.78 Isc=.1p Nc=1.744 Ikr=.6068
+  Rb=31 Rc=.2997 Cjc=2.958p Mjc=.333 Vjc=.75 Fc=.5 Cje=3.42p Mje=.333
+  Vje=.75 Tr=8.891n Tf=112.2p Itf=.3 Xtf=2 Vtf=25)

