* SPICE модель BD136 - ближайший аналог КТ814Б
* источник: http://www.onsemi.ru.com/pub_link/Collateral/BD136.SP3
**************************************
*      Model Generated by MODPEX     *
*Copyright(c) Symmetry Design Systems*
*         All Rights Reserved        *
*    UNPUBLISHED LICENSED SOFTWARE   *
*   Contains Proprietary Information *
*      Which is The Property of      *
*     SYMMETRY OR ITS LICENSORS      *
*    Modeling services provided by   *
* Interface Technologies www.i-t.com *
**************************************
.MODEL BD136 PNP(
+ IS=1e-09 BF=681.414 NF=0.85 VAF=10
+ IKF=0.196957 ISE=1e-08 NE=1.57381 BR=56.5761
+ NR=1.5 VAR=0.975138 IKR=0.952908 ISC=1e-08
+ NC=3.58666 RB=40.4245 IRB=0.1 RBM=0.106663
+ RE=0.00034585 RC=1.31191 XTB=22.4074 XTI=1
+ EG=1.05 CJE=1e-11 VJE=0.75 MJE=0.33
+ TF=1e-09 XTF=1 VTF=10 ITF=0.01
+ CJC=1e-11 VJC=0.75 MJC=0.33 XCJC=0.9
+ FC=0.5 CJS=0 VJS=0.75 MJS=0.5
+ TR=1e-07 PTF=0 KF=0 AF=1)
* Model generated on Feb 22, 2004
* Model format: SPICE3



