* SPICE модель классического советского транзистора КТ361Б
.model KT361B PNP(Is=31.08f Xti=3 Eg=1.11 Vaf=75 Bf=203.3 Ise=325.3f
+  Ne=1.534 Ikf=.2072 Xtb=1.5 Br=1 Isc=34.36f Nc=1.022
+  Ikr=3.163 Rc=3.748 Rb=70 Cjc=10.93p Mjc=.33 Vjc=.75 Fc=.5 Cje=18.5p
+  Mje=.33 Vje=.75 Tr=275.6n Tf=91.32p Itf=.1303 Xtf=1.762 Vtf=40)

