* SPICE модель транзистора S8550 (2TY маркировка SMD)
* взято отсюда: https://wenku.baidu.com/view/b554401a964bcf84b9d57b19.html
* created using Model Editor release 10.5.0 on 11/27/08 at 09:04 
* The Model Editor is a PSpice product. 
.model S8550 PNP ( 
+  IS=117.63E-15 BF=178.208 NF=1 
+  VAF=51.250 VAR=36.6808 IKF=3.3034
+  ISE=18.820E-15 BR=5 IKR=10.000E-3 RB=122
+  RBM=27.073 ISC=200.00E-18 NC=1.5 RC=1
+  CJE=99.513E-12 VJE=0.777949 MJE=0.38009
+  FC=0.499252 CJC=3.32783E-11 VJC=0.65102
+  MJC=0.389073 TF=7.96E-10)

