* SPICE модель "стандартного" светодиода NSPW500BS
* позаимствовано из "LTSpice IV"
.model NSPW500BS D(Is=.27n Rs=5.65 N=6.79 Cjo=42p Xti=200)
*                Iave=30m Vpk=5 mfg=Nichia type=LED

