* моделирование переходного процесса 
* шаг моделирования - 1 мс
* время моделирования - 10 с
.tran 1m 10

