* моделирование переходного процесса 
* шаг моделирования - 30 мкс
* время моделирования - 3 с
.tran 30u 3

