* моделирование переходного процесса 
* шаг моделирования - 1 мкс
* время моделирования - 10 мс
.tran 1u 10m

