* моделирование переходного процесса 
.tran 3u 30m

