* SPICE модель кремневого диода 1N914/1N4148 - аналог КД521А
.model 1N914 D(Is=2.52n Rs=.568 N=1.752 Cjo=4p M=.4 tt=20n)

