* простейшая SPICE модель "идеального" n-p-n транзистора (h21э=100)
.model BJTNPN NPN(Bf=100)

