* SPICE модель классического советского транзистора КТ315Б (h21э=100)
.model KT315B NPN(Is=14.34f Xti=3 Eg=1.11 Vaf=125 Bf=124 Ise=157.3f
+  Ne=1.558 Ikf=.2999 Xtb=1.5 Br=1 Isc=15.86f Nc=1.022
+  Ikr=3.163 Rb=15 Rc=3.748 Cjc=8.988p Mjc=.33 Vjc=.75 Fc=.5 Cje=18.5p
+  Mje=.33 Vje=.75 Tr=301.4n Tf=321.4p Itf=1 Xtf=2 Vtf=60)

